simulation_N/IEEE_123_homes_1min.glm
module residential {
	implicit_enduses NONE;
}

module climate;

module tape;

module generators;

class player {
	double value;
}

class house {
	double k;
	double T_max;
	double T_min;
}

class battery {
	char32 charging_type;
	double k;
}

object climate {
	name tmy_file;
	tmyfile 722900TYA.tmy3;
	interpolate LINEAR;
}

object triplex_line_conductor {
	name "c1/0 AA triplex";
	resistance 0.97;
	geometric_mean_radius 0.0111;
}

object triplex_line_configuration {
	name triplex_line_config;
	conductor_1 "c1/0 AA triplex";
	conductor_2 "c1/0 AA triplex";
	conductor_N "c1/0 AA triplex";
	insulation_thickness 0.08;
	diameter 0.368;
}

object transformer_configuration {
	name house_transformer;
	connect_type SINGLE_PHASE_CENTER_TAPPED;
	install_type PADMOUNT;
	primary_voltage 2401.7771 V;
	secondary_voltage 124 V;
	power_rating 250;
	impedance 0.015+0.0675j;
}

object player {
	name player_0;
	file glm_generation_SanDiego/players_SanDiego_2015/ps_d_59382015.player;
}

object player {
	name player_1;
	file glm_generation_SanDiego/players_SanDiego_2015/ps_d_14502015.player;
}

object player {
	name player_2;
	file glm_generation_SanDiego/players_SanDiego_2015/ps_d_26062015.player;
}

object player {
	name player_3;
	file glm_generation_SanDiego/players_SanDiego_2015/ps_d_71142015.player;
}

object player {
	name player_4;
	file glm_generation_SanDiego/players_SanDiego_2015/ps_d_17312015.player;
}

object player {
	name player_5;
	file glm_generation_SanDiego/players_SanDiego_2015/ps_d_80612015.player;
}

object player {
	name player_6;
	file glm_generation_SanDiego/players_SanDiego_2015/ps_d_15242015.player;
}

object player {
	name player_7;
	file glm_generation_SanDiego/players_SanDiego_2015/ps_d_49342015.player;
}

object player {
	name player_8;
	file glm_generation_SanDiego/players_SanDiego_2015/ps_d_38642015.player;
}

object player {
	name player_9;
	file glm_generation_SanDiego/players_SanDiego_2015/ps_d_97752015.player;
}

object player {
	name player_10;
	file glm_generation_SanDiego/players_SanDiego_2015/ps_d_83422015.player;
}

object player {
	name player_11;
	file glm_generation_SanDiego/players_SanDiego_2015/ps_d_39382015.player;
}

object player {
	name player_12;
	file glm_generation_SanDiego/players_SanDiego_2015/ps_d_2032015.player;
}

object player {
	name player_13;
	file glm_generation_SanDiego/players_SanDiego_2015/ps_d_44952015.player;
}

object triplex_node {
	name node_1_A;
	nominal_voltage 124.00;
	phases AS;
}

object transformer {
	name house_trans_1_A;
	phases AS;
	from meter_1;
	to node_1_A;
	configuration house_transformer;
}

object triplex_node {
	name node_2_B;
	nominal_voltage 124.00;
	phases BS;
}

object transformer {
	name house_trans_2_B;
	phases BS;
	from meter_2;
	to node_2_B;
	configuration house_transformer;
}

object triplex_node {
	name node_4_C;
	nominal_voltage 124.00;
	phases CS;
}

object transformer {
	name house_trans_4_C;
	phases CS;
	from meter_4;
	to node_4_C;
	configuration house_transformer;
}

object triplex_node {
	name node_5_C;
	nominal_voltage 124.00;
	phases CS;
}

object transformer {
	name house_trans_5_C;
	phases CS;
	from meter_5;
	to node_5_C;
	configuration house_transformer;
}

object triplex_node {
	name node_6_C;
	nominal_voltage 124.00;
	phases CS;
}

object transformer {
	name house_trans_6_C;
	phases CS;
	from meter_6;
	to node_6_C;
	configuration house_transformer;
}

object triplex_node {
	name node_7_A;
	nominal_voltage 124.00;
	phases AS;
}

object transformer {
	name house_trans_7_A;
	phases AS;
	from meter_7;
	to node_7_A;
	configuration house_transformer;
}

object triplex_node {
	name node_9_A;
	nominal_voltage 124.00;
	phases AS;
}

object transformer {
	name house_trans_9_A;
	phases AS;
	from meter_9;
	to node_9_A;
	configuration house_transformer;
}

object triplex_node {
	name node_10_A;
	nominal_voltage 124.00;
	phases AS;
}

object transformer {
	name house_trans_10_A;
	phases AS;
	from meter_10;
	to node_10_A;
	configuration house_transformer;
}

object triplex_node {
	name node_11_A;
	nominal_voltage 124.00;
	phases AS;
}

object transformer {
	name house_trans_11_A;
	phases AS;
	from meter_11;
	to node_11_A;
	configuration house_transformer;
}

object triplex_node {
	name node_12_B;
	nominal_voltage 124.00;
	phases BS;
}

object transformer {
	name house_trans_12_B;
	phases BS;
	from meter_12;
	to node_12_B;
	configuration house_transformer;
}

object triplex_node {
	name node_16_C;
	nominal_voltage 124.00;
	phases CS;
}

object transformer {
	name house_trans_16_C;
	phases CS;
	from meter_16;
	to node_16_C;
	configuration house_transformer;
}

object triplex_node {
	name node_17_C;
	nominal_voltage 124.00;
	phases CS;
}

object transformer {
	name house_trans_17_C;
	phases CS;
	from meter_17;
	to node_17_C;
	configuration house_transformer;
}

object triplex_node {
	name node_19_A;
	nominal_voltage 124.00;
	phases AS;
}

object transformer {
	name house_trans_19_A;
	phases AS;
	from meter_19;
	to node_19_A;
	configuration house_transformer;
}

object triplex_node {
	name node_20_A;
	nominal_voltage 124.00;
	phases AS;
}

object transformer {
	name house_trans_20_A;
	phases AS;
	from meter_20;
	to node_20_A;
	configuration house_transformer;
}

object triplex_node {
	name node_22_B;
	nominal_voltage 124.00;
	phases BS;
}

object transformer {
	name house_trans_22_B;
	phases BS;
	from meter_22;
	to node_22_B;
	configuration house_transformer;
}

object triplex_node {
	name node_24_C;
	nominal_voltage 124.00;
	phases CS;
}

object transformer {
	name house_trans_24_C;
	phases CS;
	from meter_24;
	to node_24_C;
	configuration house_transformer;
}

object triplex_node {
	name node_28_A;
	nominal_voltage 124.00;
	phases AS;
}

object transformer {
	name house_trans_28_A;
	phases AS;
	from meter_28;
	to node_28_A;
	configuration house_transformer;
}

object triplex_node {
	name node_29_A;
	nominal_voltage 124.00;
	phases AS;
}

object transformer {
	name house_trans_29_A;
	phases AS;
	from meter_29;
	to node_29_A;
	configuration house_transformer;
}

object triplex_node {
	name node_30_A;
	nominal_voltage 124.00;
	phases AS;
}

object transformer {
	name house_trans_30_A;
	phases AS;
	from meter_30;
	to node_30_A;
	configuration house_transformer;
}

object triplex_node {
	name node_31_C;
	nominal_voltage 124.00;
	phases CS;
}

object transformer {
	name house_trans_31_C;
	phases CS;
	from meter_31;
	to node_31_C;
	configuration house_transformer;
}

object triplex_node {
	name node_32_C;
	nominal_voltage 124.00;
	phases CS;
}

object transformer {
	name house_trans_32_C;
	phases CS;
	from meter_32;
	to node_32_C;
	configuration house_transformer;
}

object triplex_node {
	name node_33_A;
	nominal_voltage 124.00;
	phases AS;
}

object transformer {
	name house_trans_33_A;
	phases AS;
	from meter_33;
	to node_33_A;
	configuration house_transformer;
}

object triplex_node {
	name node_34_C;
	nominal_voltage 124.00;
	phases CS;
}

object transformer {
	name house_trans_34_C;
	phases CS;
	from meter_34;
	to node_34_C;
	configuration house_transformer;
}

object triplex_node {
	name node_35_A;
	nominal_voltage 124.00;
	phases AS;
}

object transformer {
	name house_trans_35_A;
	phases AS;
	from meter_35;
	to node_35_A;
	configuration house_transformer;
}

object triplex_node {
	name node_37_A;
	nominal_voltage 124.00;
	phases AS;
}

object transformer {
	name house_trans_37_A;
	phases AS;
	from meter_37;
	to node_37_A;
	configuration house_transformer;
}

object triplex_node {
	name node_38_B;
	nominal_voltage 124.00;
	phases BS;
}

object transformer {
	name house_trans_38_B;
	phases BS;
	from meter_38;
	to node_38_B;
	configuration house_transformer;
}

object triplex_node {
	name node_39_B;
	nominal_voltage 124.00;
	phases BS;
}

object transformer {
	name house_trans_39_B;
	phases BS;
	from meter_39;
	to node_39_B;
	configuration house_transformer;
}

object triplex_node {
	name node_41_C;
	nominal_voltage 124.00;
	phases CS;
}

object transformer {
	name house_trans_41_C;
	phases CS;
	from meter_41;
	to node_41_C;
	configuration house_transformer;
}

object triplex_node {
	name node_42_A;
	nominal_voltage 124.00;
	phases AS;
}

object transformer {
	name house_trans_42_A;
	phases AS;
	from meter_42;
	to node_42_A;
	configuration house_transformer;
}

object triplex_node {
	name node_43_B;
	nominal_voltage 124.00;
	phases BS;
}

object transformer {
	name house_trans_43_B;
	phases BS;
	from meter_43;
	to node_43_B;
	configuration house_transformer;
}

object triplex_node {
	name node_45_A;
	nominal_voltage 124.00;
	phases AS;
}

object transformer {
	name house_trans_45_A;
	phases AS;
	from meter_45;
	to node_45_A;
	configuration house_transformer;
}

object triplex_node {
	name node_46_A;
	nominal_voltage 124.00;
	phases AS;
}

object transformer {
	name house_trans_46_A;
	phases AS;
	from meter_46;
	to node_46_A;
	configuration house_transformer;
}

object triplex_node {
	name node_47_A;
	nominal_voltage 124.00;
	phases AS;
}

object transformer {
	name house_trans_47_A;
	phases AS;
	from meter_47;
	to node_47_A;
	configuration house_transformer;
}

object triplex_node {
	name node_47_B;
	nominal_voltage 124.00;
	phases BS;
}

object transformer {
	name house_trans_47_B;
	phases BS;
	from meter_47;
	to node_47_B;
	configuration house_transformer;
}

object triplex_node {
	name node_47_C;
	nominal_voltage 124.00;
	phases CS;
}

object transformer {
	name house_trans_47_C;
	phases CS;
	from meter_47;
	to node_47_C;
	configuration house_transformer;
}

object triplex_node {
	name node_48_A;
	nominal_voltage 124.00;
	phases AS;
}

object transformer {
	name house_trans_48_A;
	phases AS;
	from meter_48;
	to node_48_A;
	configuration house_transformer;
}

object triplex_node {
	name node_48_B;
	nominal_voltage 124.00;
	phases BS;
}

object transformer {
	name house_trans_48_B;
	phases BS;
	from meter_48;
	to node_48_B;
	configuration house_transformer;
}

object triplex_node {
	name node_48_C;
	nominal_voltage 124.00;
	phases CS;
}

object transformer {
	name house_trans_48_C;
	phases CS;
	from meter_48;
	to node_48_C;
	configuration house_transformer;
}

object triplex_node {
	name node_49_A;
	nominal_voltage 124.00;
	phases AS;
}

object transformer {
	name house_trans_49_A;
	phases AS;
	from meter_49;
	to node_49_A;
	configuration house_transformer;
}

object triplex_node {
	name node_49_B;
	nominal_voltage 124.00;
	phases BS;
}

object transformer {
	name house_trans_49_B;
	phases BS;
	from meter_49;
	to node_49_B;
	configuration house_transformer;
}

object triplex_node {
	name node_49_C;
	nominal_voltage 124.00;
	phases CS;
}

object transformer {
	name house_trans_49_C;
	phases CS;
	from meter_49;
	to node_49_C;
	configuration house_transformer;
}

object triplex_node {
	name node_50_C;
	nominal_voltage 124.00;
	phases CS;
}

object transformer {
	name house_trans_50_C;
	phases CS;
	from meter_50;
	to node_50_C;
	configuration house_transformer;
}

object triplex_node {
	name node_51_A;
	nominal_voltage 124.00;
	phases AS;
}

object transformer {
	name house_trans_51_A;
	phases AS;
	from meter_51;
	to node_51_A;
	configuration house_transformer;
}

object triplex_node {
	name node_52_A;
	nominal_voltage 124.00;
	phases AS;
}

object transformer {
	name house_trans_52_A;
	phases AS;
	from meter_52;
	to node_52_A;
	configuration house_transformer;
}

object triplex_node {
	name node_53_A;
	nominal_voltage 124.00;
	phases AS;
}

object transformer {
	name house_trans_53_A;
	phases AS;
	from meter_53;
	to node_53_A;
	configuration house_transformer;
}

object triplex_node {
	name node_55_A;
	nominal_voltage 124.00;
	phases AS;
}

object transformer {
	name house_trans_55_A;
	phases AS;
	from meter_55;
	to node_55_A;
	configuration house_transformer;
}

object triplex_node {
	name node_56_B;
	nominal_voltage 124.00;
	phases BS;
}

object transformer {
	name house_trans_56_B;
	phases BS;
	from meter_56;
	to node_56_B;
	configuration house_transformer;
}

object triplex_node {
	name node_58_B;
	nominal_voltage 124.00;
	phases BS;
}

object transformer {
	name house_trans_58_B;
	phases BS;
	from meter_58;
	to node_58_B;
	configuration house_transformer;
}

object triplex_node {
	name node_59_B;
	nominal_voltage 124.00;
	phases BS;
}

object transformer {
	name house_trans_59_B;
	phases BS;
	from meter_59;
	to node_59_B;
	configuration house_transformer;
}

object triplex_node {
	name node_60_A;
	nominal_voltage 124.00;
	phases AS;
}

object transformer {
	name house_trans_60_A;
	phases AS;
	from meter_60;
	to node_60_A;
	configuration house_transformer;
}

object triplex_node {
	name node_62_C;
	nominal_voltage 124.00;
	phases CS;
}

object transformer {
	name house_trans_62_C;
	phases CS;
	from meter_62;
	to node_62_C;
	configuration house_transformer;
}

object triplex_node {
	name node_63_A;
	nominal_voltage 124.00;
	phases AS;
}

object transformer {
	name house_trans_63_A;
	phases AS;
	from meter_63;
	to node_63_A;
	configuration house_transformer;
}

object triplex_node {
	name node_64_B;
	nominal_voltage 124.00;
	phases BS;
}

object transformer {
	name house_trans_64_B;
	phases BS;
	from meter_64;
	to node_64_B;
	configuration house_transformer;
}

object triplex_node {
	name node_65_A;
	nominal_voltage 124.00;
	phases AS;
}

object transformer {
	name house_trans_65_A;
	phases AS;
	from meter_65;
	to node_65_A;
	configuration house_transformer;
}

object triplex_node {
	name node_65_B;
	nominal_voltage 124.00;
	phases BS;
}

object transformer {
	name house_trans_65_B;
	phases BS;
	from meter_65;
	to node_65_B;
	configuration house_transformer;
}

object triplex_node {
	name node_65_C;
	nominal_voltage 124.00;
	phases CS;
}

object transformer {
	name house_trans_65_C;
	phases CS;
	from meter_65;
	to node_65_C;
	configuration house_transformer;
}

object triplex_node {
	name node_66_C;
	nominal_voltage 124.00;
	phases CS;
}

object transformer {
	name house_trans_66_C;
	phases CS;
	from meter_66;
	to node_66_C;
	configuration house_transformer;
}

object triplex_node {
	name node_68_A;
	nominal_voltage 124.00;
	phases AS;
}

object transformer {
	name house_trans_68_A;
	phases AS;
	from meter_68;
	to node_68_A;
	configuration house_transformer;
}

object triplex_node {
	name node_69_A;
	nominal_voltage 124.00;
	phases AS;
}

object transformer {
	name house_trans_69_A;
	phases AS;
	from meter_69;
	to node_69_A;
	configuration house_transformer;
}

object triplex_node {
	name node_70_A;
	nominal_voltage 124.00;
	phases AS;
}

object transformer {
	name house_trans_70_A;
	phases AS;
	from meter_70;
	to node_70_A;
	configuration house_transformer;
}

object triplex_node {
	name node_71_A;
	nominal_voltage 124.00;
	phases AS;
}

object transformer {
	name house_trans_71_A;
	phases AS;
	from meter_71;
	to node_71_A;
	configuration house_transformer;
}

object triplex_node {
	name node_73_C;
	nominal_voltage 124.00;
	phases CS;
}

object transformer {
	name house_trans_73_C;
	phases CS;
	from meter_73;
	to node_73_C;
	configuration house_transformer;
}

object triplex_node {
	name node_74_C;
	nominal_voltage 124.00;
	phases CS;
}

object transformer {
	name house_trans_74_C;
	phases CS;
	from meter_74;
	to node_74_C;
	configuration house_transformer;
}

object triplex_node {
	name node_75_C;
	nominal_voltage 124.00;
	phases CS;
}

object transformer {
	name house_trans_75_C;
	phases CS;
	from meter_75;
	to node_75_C;
	configuration house_transformer;
}

object triplex_node {
	name node_76_A;
	nominal_voltage 124.00;
	phases AS;
}

object transformer {
	name house_trans_76_A;
	phases AS;
	from meter_76;
	to node_76_A;
	configuration house_transformer;
}

object triplex_node {
	name node_76_B;
	nominal_voltage 124.00;
	phases BS;
}

object transformer {
	name house_trans_76_B;
	phases BS;
	from meter_76;
	to node_76_B;
	configuration house_transformer;
}

object triplex_node {
	name node_76_C;
	nominal_voltage 124.00;
	phases CS;
}

object transformer {
	name house_trans_76_C;
	phases CS;
	from meter_76;
	to node_76_C;
	configuration house_transformer;
}

object triplex_node {
	name node_77_B;
	nominal_voltage 124.00;
	phases BS;
}

object transformer {
	name house_trans_77_B;
	phases BS;
	from meter_77;
	to node_77_B;
	configuration house_transformer;
}

object triplex_node {
	name node_79_A;
	nominal_voltage 124.00;
	phases AS;
}

object transformer {
	name house_trans_79_A;
	phases AS;
	from meter_79;
	to node_79_A;
	configuration house_transformer;
}

object triplex_node {
	name node_80_B;
	nominal_voltage 124.00;
	phases BS;
}

object transformer {
	name house_trans_80_B;
	phases BS;
	from meter_80;
	to node_80_B;
	configuration house_transformer;
}

object triplex_node {
	name node_82_A;
	nominal_voltage 124.00;
	phases AS;
}

object transformer {
	name house_trans_82_A;
	phases AS;
	from meter_82;
	to node_82_A;
	configuration house_transformer;
}

object triplex_node {
	name node_83_C;
	nominal_voltage 124.00;
	phases CS;
}

object transformer {
	name house_trans_83_C;
	phases CS;
	from meter_83;
	to node_83_C;
	configuration house_transformer;
}

object triplex_node {
	name node_84_C;
	nominal_voltage 124.00;
	phases CS;
}

object transformer {
	name house_trans_84_C;
	phases CS;
	from meter_84;
	to node_84_C;
	configuration house_transformer;
}

object triplex_node {
	name node_85_C;
	nominal_voltage 124.00;
	phases CS;
}

object transformer {
	name house_trans_85_C;
	phases CS;
	from meter_85;
	to node_85_C;
	configuration house_transformer;
}

object triplex_node {
	name node_86_B;
	nominal_voltage 124.00;
	phases BS;
}

object transformer {
	name house_trans_86_B;
	phases BS;
	from meter_86;
	to node_86_B;
	configuration house_transformer;
}

object triplex_node {
	name node_87_B;
	nominal_voltage 124.00;
	phases BS;
}

object transformer {
	name house_trans_87_B;
	phases BS;
	from meter_87;
	to node_87_B;
	configuration house_transformer;
}

object triplex_node {
	name node_88_A;
	nominal_voltage 124.00;
	phases AS;
}

object transformer {
	name house_trans_88_A;
	phases AS;
	from meter_88;
	to node_88_A;
	configuration house_transformer;
}

object triplex_node {
	name node_90_B;
	nominal_voltage 124.00;
	phases BS;
}

object transformer {
	name house_trans_90_B;
	phases BS;
	from meter_90;
	to node_90_B;
	configuration house_transformer;
}

object triplex_node {
	name node_92_C;
	nominal_voltage 124.00;
	phases CS;
}

object transformer {
	name house_trans_92_C;
	phases CS;
	from meter_92;
	to node_92_C;
	configuration house_transformer;
}

object triplex_node {
	name node_94_A;
	nominal_voltage 124.00;
	phases AS;
}

object transformer {
	name house_trans_94_A;
	phases AS;
	from meter_94;
	to node_94_A;
	configuration house_transformer;
}

object triplex_node {
	name node_95_B;
	nominal_voltage 124.00;
	phases BS;
}

object transformer {
	name house_trans_95_B;
	phases BS;
	from meter_95;
	to node_95_B;
	configuration house_transformer;
}

object triplex_node {
	name node_96_B;
	nominal_voltage 124.00;
	phases BS;
}

object transformer {
	name house_trans_96_B;
	phases BS;
	from meter_96;
	to node_96_B;
	configuration house_transformer;
}

object triplex_node {
	name node_98_A;
	nominal_voltage 124.00;
	phases AS;
}

object transformer {
	name house_trans_98_A;
	phases AS;
	from meter_98;
	to node_98_A;
	configuration house_transformer;
}

object triplex_node {
	name node_99_B;
	nominal_voltage 124.00;
	phases BS;
}

object transformer {
	name house_trans_99_B;
	phases BS;
	from meter_99;
	to node_99_B;
	configuration house_transformer;
}

object triplex_node {
	name node_100_C;
	nominal_voltage 124.00;
	phases CS;
}

object transformer {
	name house_trans_100_C;
	phases CS;
	from meter_100;
	to node_100_C;
	configuration house_transformer;
}

object triplex_node {
	name node_102_C;
	nominal_voltage 124.00;
	phases CS;
}

object transformer {
	name house_trans_102_C;
	phases CS;
	from meter_102;
	to node_102_C;
	configuration house_transformer;
}

object triplex_node {
	name node_103_C;
	nominal_voltage 124.00;
	phases CS;
}

object transformer {
	name house_trans_103_C;
	phases CS;
	from meter_103;
	to node_103_C;
	configuration house_transformer;
}

object triplex_node {
	name node_104_C;
	nominal_voltage 124.00;
	phases CS;
}

object transformer {
	name house_trans_104_C;
	phases CS;
	from meter_104;
	to node_104_C;
	configuration house_transformer;
}

object triplex_node {
	name node_106_B;
	nominal_voltage 124.00;
	phases BS;
}

object transformer {
	name house_trans_106_B;
	phases BS;
	from meter_106;
	to node_106_B;
	configuration house_transformer;
}

object triplex_node {
	name node_107_B;
	nominal_voltage 124.00;
	phases BS;
}

object transformer {
	name house_trans_107_B;
	phases BS;
	from meter_107;
	to node_107_B;
	configuration house_transformer;
}

object triplex_node {
	name node_109_A;
	nominal_voltage 124.00;
	phases AS;
}

object transformer {
	name house_trans_109_A;
	phases AS;
	from meter_109;
	to node_109_A;
	configuration house_transformer;
}

object triplex_node {
	name node_111_A;
	nominal_voltage 124.00;
	phases AS;
}

object transformer {
	name house_trans_111_A;
	phases AS;
	from meter_111;
	to node_111_A;
	configuration house_transformer;
}

object triplex_node {
	name node_112_A;
	nominal_voltage 124.00;
	phases AS;
}

object transformer {
	name house_trans_112_A;
	phases AS;
	from meter_112;
	to node_112_A;
	configuration house_transformer;
}

object triplex_node {
	name node_113_A;
	nominal_voltage 124.00;
	phases AS;
}

object transformer {
	name house_trans_113_A;
	phases AS;
	from meter_113;
	to node_113_A;
	configuration house_transformer;
}

object triplex_node {
	name node_114_A;
	nominal_voltage 124.00;
	phases AS;
}

object transformer {
	name house_trans_114_A;
	phases AS;
	from meter_114;
	to node_114_A;
	configuration house_transformer;
}

object triplex_meter {
	name meter_GLD_B1_N48_C_0001;
	nominal_voltage 124.00;
	groupid House_meter;
	phases CS;
}

object house {
	name GLD_B1_N48_C_0001;
	number_of_stories 1;
	cooling_setpoint 69;
	heating_setpoint 63;
	T_min 60;
	T_max 72;
	k 4.0;
	cooling_system_type ELECTRIC;
	heating_system_type GAS;
	thermostat_control NONE;
	floor_area 2561;
	window_wall_ratio 0.14;
	airchange_per_hour 0.6;
	parent meter_GLD_B1_N48_C_0001;
	air_temperature 68.49975759151982;
	mass_temperature 68.57345759151983;
}

object ZIPload {
	parent GLD_B1_N48_C_0001;
	name zip_GLD_B1_N48_C_0001;
	power_fraction 0.5;
	impedance_fraction 0.5;
	current_fraction 0.0;
	power_pf 0.9;
	current_pf 0.9;
	impedance_pf 0.9;
	heat_fraction 0.0;
	base_power player_4.value;
}

object triplex_line {
	name house_line_GLD_B1_N48_C_0001;
	from node_48_C;
	to meter_GLD_B1_N48_C_0001;
	phases CS;
	length 30 ft;
	configuration triplex_line_config;
}

object triplex_meter {
	name meter_GLD_B1_N19_A_0002;
	nominal_voltage 124.00;
	groupid House_meter;
	phases AS;
}

object house {
	name GLD_B1_N19_A_0002;
	number_of_stories 1;
	cooling_setpoint 70;
	heating_setpoint 59;
	T_min 56;
	T_max 73;
	k 3.9;
	cooling_system_type ELECTRIC;
	heating_system_type GAS;
	thermostat_control NONE;
	floor_area 2486;
	window_wall_ratio 0.15;
	airchange_per_hour 0.3;
	parent meter_GLD_B1_N19_A_0002;
	air_temperature 68.39294019314691;
	mass_temperature 68.49454019314692;
}

object ZIPload {
	parent GLD_B1_N19_A_0002;
	name zip_GLD_B1_N19_A_0002;
	power_fraction 0.5;
	impedance_fraction 0.5;
	current_fraction 0.0;
	power_pf 0.9;
	current_pf 0.9;
	impedance_pf 0.9;
	heat_fraction 0.0;
	base_power player_1.value;
}

object triplex_line {
	name house_line_GLD_B1_N19_A_0002;
	from node_19_A;
	to meter_GLD_B1_N19_A_0002;
	phases AS;
	length 30 ft;
	configuration triplex_line_config;
}

object triplex_meter {
	name meter_GLD_B1_N84_C_0003;
	nominal_voltage 124.00;
	groupid House_meter;
	phases CS;
}

object house {
	name GLD_B1_N84_C_0003;
	number_of_stories 1;
	cooling_setpoint 71;
	heating_setpoint 66.0;
	T_min 63.0;
	T_max 74;
	k 3.0;
	cooling_system_type ELECTRIC;
	heating_system_type GAS;
	thermostat_control NONE;
	floor_area 1560;
	window_wall_ratio 0.14;
	airchange_per_hour 0.6;
	parent meter_GLD_B1_N84_C_0003;
	air_temperature 71.26801352209247;
	mass_temperature 71.39761352209247;
}

object ZIPload {
	parent GLD_B1_N84_C_0003;
	name zip_GLD_B1_N84_C_0003;
	power_fraction 0.5;
	impedance_fraction 0.5;
	current_fraction 0.0;
	power_pf 0.9;
	current_pf 0.9;
	impedance_pf 0.9;
	heat_fraction 0.0;
	base_power player_1.value;
}

object triplex_line {
	name house_line_GLD_B1_N84_C_0003;
	from node_84_C;
	to meter_GLD_B1_N84_C_0003;
	phases CS;
	length 30 ft;
	configuration triplex_line_config;
}

object triplex_meter {
	name meter_GLD_B1_N12_B_0004;
	nominal_voltage 124.00;
	groupid House_meter;
	phases BS;
}

object house {
	name GLD_B1_N12_B_0004;
	number_of_stories 1;
	cooling_setpoint 70;
	heating_setpoint 65.0;
	T_min 62.0;
	T_max 73;
	k 4.0;
	cooling_system_type ELECTRIC;
	heating_system_type GAS;
	thermostat_control NONE;
	floor_area 1145;
	window_wall_ratio 0.16;
	airchange_per_hour 0.37;
	parent meter_GLD_B1_N12_B_0004;
	air_temperature 70.92777323728994;
	mass_temperature 71.02437323728994;
}

object ZIPload {
	parent GLD_B1_N12_B_0004;
	name zip_GLD_B1_N12_B_0004;
	power_fraction 0.5;
	impedance_fraction 0.5;
	current_fraction 0.0;
	power_pf 0.9;
	current_pf 0.9;
	impedance_pf 0.9;
	heat_fraction 0.0;
	base_power player_3.value;
}

object triplex_line {
	name house_line_GLD_B1_N12_B_0004;
	from node_12_B;
	to meter_GLD_B1_N12_B_0004;
	phases BS;
	length 30 ft;
	configuration triplex_line_config;
}

object triplex_meter {
	name meter_GLD_B1_N87_B_0005;
	nominal_voltage 124.00;
	groupid House_meter;
	phases BS;
}

object house {
	name GLD_B1_N87_B_0005;
	number_of_stories 2;
	cooling_setpoint 72;
	heating_setpoint 64;
	T_min 61;
	T_max 75;
	k 3.1;
	cooling_system_type ELECTRIC;
	heating_system_type GAS;
	thermostat_control NONE;
	floor_area 2445;
	window_wall_ratio 0.15;
	airchange_per_hour 0.47;
	parent meter_GLD_B1_N87_B_0005;
	air_temperature 71.80283848989325;
	mass_temperature 71.92963848989324;
}

object ZIPload {
	parent GLD_B1_N87_B_0005;
	name zip_GLD_B1_N87_B_0005;
	power_fraction 0.5;
	impedance_fraction 0.5;
	current_fraction 0.0;
	power_pf 0.9;
	current_pf 0.9;
	impedance_pf 0.9;
	heat_fraction 0.0;
	base_power player_9.value;
}

object triplex_line {
	name house_line_GLD_B1_N87_B_0005;
	from node_87_B;
	to meter_GLD_B1_N87_B_0005;
	phases BS;
	length 30 ft;
	configuration triplex_line_config;
}

object triplex_meter {
	name meter_GLD_B1_N7_A_0006;
	nominal_voltage 124.00;
	groupid House_meter;
	phases AS;
}

object house {
	name GLD_B1_N7_A_0006;
	number_of_stories 1;
	cooling_setpoint 70;
	heating_setpoint 65.0;
	T_min 62.0;
	T_max 73;
	k 3.1;
	cooling_system_type ELECTRIC;
	heating_system_type GAS;
	thermostat_control NONE;
	floor_area 2726;
	window_wall_ratio 0.14;
	airchange_per_hour 0.16;
	parent meter_GLD_B1_N7_A_0006;
	air_temperature 68.87094734136;
	mass_temperature 68.96184734136;
}

object ZIPload {
	parent GLD_B1_N7_A_0006;
	name zip_GLD_B1_N7_A_0006;
	power_fraction 0.5;
	impedance_fraction 0.5;
	current_fraction 0.0;
	power_pf 0.9;
	current_pf 0.9;
	impedance_pf 0.9;
	heat_fraction 0.0;
	base_power player_6.value;
}

object triplex_line {
	name house_line_GLD_B1_N7_A_0006;
	from node_7_A;
	to meter_GLD_B1_N7_A_0006;
	phases AS;
	length 30 ft;
	configuration triplex_line_config;
}

object triplex_meter {
	name meter_GLD_B1_N94_A_0007;
	nominal_voltage 124.00;
	groupid House_meter;
	phases AS;
}

object house {
	name GLD_B1_N94_A_0007;
	number_of_stories 1;
	cooling_setpoint 72;
	heating_setpoint 67.0;
	T_min 64.0;
	T_max 75;
	k 3.5;
	cooling_system_type ELECTRIC;
	heating_system_type GAS;
	thermostat_control NONE;
	floor_area 1699;
	window_wall_ratio 0.15;
	airchange_per_hour 0.28;
	parent meter_GLD_B1_N94_A_0007;
	air_temperature 69.97779302120074;
	mass_temperature 70.12589302120074;
}

object ZIPload {
	parent GLD_B1_N94_A_0007;
	name zip_GLD_B1_N94_A_0007;
	power_fraction 0.5;
	impedance_fraction 0.5;
	current_fraction 0.0;
	power_pf 0.9;
	current_pf 0.9;
	impedance_pf 0.9;
	heat_fraction 0.0;
	base_power player_0.value;
}

object triplex_line {
	name house_line_GLD_B1_N94_A_0007;
	from node_94_A;
	to meter_GLD_B1_N94_A_0007;
	phases AS;
	length 30 ft;
	configuration triplex_line_config;
}

object triplex_meter {
	name meter_GLD_B1_N76_A_0008;
	nominal_voltage 124.00;
	groupid House_meter;
	phases AS;
}

object house {
	name GLD_B1_N76_A_0008;
	number_of_stories 1;
	cooling_setpoint 70;
	heating_setpoint 65.0;
	T_min 62.0;
	T_max 73;
	k 3.3;
	cooling_system_type ELECTRIC;
	heating_system_type GAS;
	thermostat_control NONE;
	floor_area 1976;
	window_wall_ratio 0.15;
	airchange_per_hour 0.14;
	parent meter_GLD_B1_N76_A_0008;
	air_temperature 69.81190470381635;
	mass_temperature 69.90120470381636;
}

object ZIPload {
	parent GLD_B1_N76_A_0008;
	name zip_GLD_B1_N76_A_0008;
	power_fraction 0.5;
	impedance_fraction 0.5;
	current_fraction 0.0;
	power_pf 0.9;
	current_pf 0.9;
	impedance_pf 0.9;
	heat_fraction 0.0;
	base_power player_11.value;
}

object triplex_line {
	name house_line_GLD_B1_N76_A_0008;
	from node_76_A;
	to meter_GLD_B1_N76_A_0008;
	phases AS;
	length 30 ft;
	configuration triplex_line_config;
}

object triplex_meter {
	name meter_GLD_B1_N28_A_0009;
	nominal_voltage 124.00;
	groupid House_meter;
	phases AS;
}

object house {
	name GLD_B1_N28_A_0009;
	number_of_stories 1;
	cooling_setpoint 71;
	heating_setpoint 65;
	T_min 62;
	T_max 74;
	k 4.0;
	cooling_system_type ELECTRIC;
	heating_system_type RESISTANCE;
	thermostat_control NONE;
	floor_area 1422;
	window_wall_ratio 0.16;
	airchange_per_hour 0.33;
	parent meter_GLD_B1_N28_A_0009;
	air_temperature 69.18468261215523;
	mass_temperature 69.30998261215524;
}

object ZIPload {
	parent GLD_B1_N28_A_0009;
	name zip_GLD_B1_N28_A_0009;
	power_fraction 0.5;
	impedance_fraction 0.5;
	current_fraction 0.0;
	power_pf 0.9;
	current_pf 0.9;
	impedance_pf 0.9;
	heat_fraction 0.0;
	base_power player_12.value;
}

object triplex_line {
	name house_line_GLD_B1_N28_A_0009;
	from node_28_A;
	to meter_GLD_B1_N28_A_0009;
	phases AS;
	length 30 ft;
	configuration triplex_line_config;
}

object triplex_meter {
	name meter_GLD_B1_N2_B_0010;
	nominal_voltage 124.00;
	groupid House_meter;
	phases BS;
}

object house {
	name GLD_B1_N2_B_0010;
	number_of_stories 2;
	cooling_setpoint 72;
	heating_setpoint 67.0;
	T_min 64.0;
	T_max 75;
	k 4.0;
	cooling_system_type ELECTRIC;
	heating_system_type GAS;
	thermostat_control NONE;
	floor_area 3338;
	window_wall_ratio 0.14;
	airchange_per_hour 0.26;
	parent meter_GLD_B1_N2_B_0010;
	air_temperature 70.69771219222605;
	mass_temperature 70.81941219222605;
}

object ZIPload {
	parent GLD_B1_N2_B_0010;
	name zip_GLD_B1_N2_B_0010;
	power_fraction 0.5;
	impedance_fraction 0.5;
	current_fraction 0.0;
	power_pf 0.9;
	current_pf 0.9;
	impedance_pf 0.9;
	heat_fraction 0.0;
	base_power player_1.value;
}

object triplex_line {
	name house_line_GLD_B1_N2_B_0010;
	from node_2_B;
	to meter_GLD_B1_N2_B_0010;
	phases BS;
	length 30 ft;
	configuration triplex_line_config;
}

object triplex_meter {
	name meter_GLD_B1_N88_A_0011;
	nominal_voltage 124.00;
	groupid House_meter;
	phases AS;
}

object house {
	name GLD_B1_N88_A_0011;
	number_of_stories 1;
	cooling_setpoint 70;
	heating_setpoint 62;
	T_min 59;
	T_max 73;
	k 3.5;
	cooling_system_type ELECTRIC;
	heating_system_type GAS;
	thermostat_control NONE;
	floor_area 3455;
	window_wall_ratio 0.15;
	airchange_per_hour 0.21;
	parent meter_GLD_B1_N88_A_0011;
	air_temperature 70.1180400771555;
	mass_temperature 70.2162400771555;
}

object ZIPload {
	parent GLD_B1_N88_A_0011;
	name zip_GLD_B1_N88_A_0011;
	power_fraction 0.5;
	impedance_fraction 0.5;
	current_fraction 0.0;
	power_pf 0.9;
	current_pf 0.9;
	impedance_pf 0.9;
	heat_fraction 0.0;
	base_power player_2.value;
}

object triplex_line {
	name house_line_GLD_B1_N88_A_0011;
	from node_88_A;
	to meter_GLD_B1_N88_A_0011;
	phases AS;
	length 30 ft;
	configuration triplex_line_config;
}

object triplex_meter {
	name meter_GLD_B1_N83_C_0012;
	nominal_voltage 124.00;
	groupid House_meter;
	phases CS;
}

object house {
	name GLD_B1_N83_C_0012;
	number_of_stories 1;
	cooling_setpoint 71;
	heating_setpoint 63;
	T_min 60;
	T_max 74;
	k 2.9;
	cooling_system_type ELECTRIC;
	heating_system_type RESISTANCE;
	thermostat_control NONE;
	floor_area 2266;
	window_wall_ratio 0.15;
	airchange_per_hour 0.4;
	parent meter_GLD_B1_N83_C_0012;
	air_temperature 69.37674456157204;
	mass_temperature 69.51324456157205;
}

object ZIPload {
	parent GLD_B1_N83_C_0012;
	name zip_GLD_B1_N83_C_0012;
	power_fraction 0.5;
	impedance_fraction 0.5;
	current_fraction 0.0;
	power_pf 0.9;
	current_pf 0.9;
	impedance_pf 0.9;
	heat_fraction 0.0;
	base_power player_2.value;
}

object triplex_line {
	name house_line_GLD_B1_N83_C_0012;
	from node_83_C;
	to meter_GLD_B1_N83_C_0012;
	phases CS;
	length 30 ft;
	configuration triplex_line_config;
}

object triplex_meter {
	name meter_GLD_B1_N9_A_0013;
	nominal_voltage 124.00;
	groupid House_meter;
	phases AS;
}

object house {
	name GLD_B1_N9_A_0013;
	number_of_stories 1;
	cooling_setpoint 70;
	heating_setpoint 65.0;
	T_min 62.0;
	T_max 73;
	k 2.2;
	cooling_system_type ELECTRIC;
	heating_system_type RESISTANCE;
	thermostat_control NONE;
	floor_area 2361;
	window_wall_ratio 0.15;
	airchange_per_hour 0.3;
	parent meter_GLD_B1_N9_A_0013;
	air_temperature 69.70800225832524;
	mass_temperature 69.79660225832524;
}

object ZIPload {
	parent GLD_B1_N9_A_0013;
	name zip_GLD_B1_N9_A_0013;
	power_fraction 0.5;
	impedance_fraction 0.5;
	current_fraction 0.0;
	power_pf 0.9;
	current_pf 0.9;
	impedance_pf 0.9;
	heat_fraction 0.0;
	base_power player_1.value;
}

object triplex_line {
	name house_line_GLD_B1_N9_A_0013;
	from node_9_A;
	to meter_GLD_B1_N9_A_0013;
	phases AS;
	length 30 ft;
	configuration triplex_line_config;
}

object triplex_meter {
	name meter_GLD_B1_N38_B_0014;
	nominal_voltage 124.00;
	groupid House_meter;
	phases BS;
}

object house {
	name GLD_B1_N38_B_0014;
	number_of_stories 1;
	cooling_setpoint 69;
	heating_setpoint 64.0;
	T_min 61.0;
	T_max 72;
	k 2.0;
	cooling_system_type ELECTRIC;
	heating_system_type RESISTANCE;
	thermostat_control NONE;
	floor_area 2510;
	window_wall_ratio 0.15;
	airchange_per_hour 0.28;
	parent meter_GLD_B1_N38_B_0014;
	air_temperature 70.16090199061307;
	mass_temperature 70.22710199061306;
}

object ZIPload {
	parent GLD_B1_N38_B_0014;
	name zip_GLD_B1_N38_B_0014;
	power_fraction 0.5;
	impedance_fraction 0.5;
	current_fraction 0.0;
	power_pf 0.9;
	current_pf 0.9;
	impedance_pf 0.9;
	heat_fraction 0.0;
	base_power player_8.value;
}

object triplex_line {
	name house_line_GLD_B1_N38_B_0014;
	from node_38_B;
	to meter_GLD_B1_N38_B_0014;
	phases BS;
	length 30 ft;
	configuration triplex_line_config;
}

object triplex_meter {
	name meter_GLD_B1_N62_C_0015;
	nominal_voltage 124.00;
	groupid House_meter;
	phases CS;
}

object house {
	name GLD_B1_N62_C_0015;
	number_of_stories 1;
	cooling_setpoint 70;
	heating_setpoint 61;
	T_min 58;
	T_max 73;
	k 2.7;
	cooling_system_type ELECTRIC;
	heating_system_type GAS;
	thermostat_control NONE;
	floor_area 1660;
	window_wall_ratio 0.15;
	airchange_per_hour 0.4;
	parent meter_GLD_B1_N62_C_0015;
	air_temperature 70.75584388749033;
	mass_temperature 70.85194388749032;
}

object ZIPload {
	parent GLD_B1_N62_C_0015;
	name zip_GLD_B1_N62_C_0015;
	power_fraction 0.5;
	impedance_fraction 0.5;
	current_fraction 0.0;
	power_pf 0.9;
	current_pf 0.9;
	impedance_pf 0.9;
	heat_fraction 0.0;
	base_power player_0.value;
}

object triplex_line {
	name house_line_GLD_B1_N62_C_0015;
	from node_62_C;
	to meter_GLD_B1_N62_C_0015;
	phases CS;
	length 30 ft;
	configuration triplex_line_config;
}

object triplex_meter {
	name meter_GLD_B1_N32_C_0016;
	nominal_voltage 124.00;
	groupid House_meter;
	phases CS;
}

object house {
	name GLD_B1_N32_C_0016;
	number_of_stories 1;
	cooling_setpoint 72;
	heating_setpoint 67.0;
	T_min 64.0;
	T_max 75;
	k 4.0;
	cooling_system_type ELECTRIC;
	heating_system_type GAS;
	thermostat_control NONE;
	floor_area 2756;
	window_wall_ratio 0.15;
	airchange_per_hour 0.26;
	parent meter_GLD_B1_N32_C_0016;
	air_temperature 72.41232020462462;
	mass_temperature 72.57202020462462;
}

object ZIPload {
	parent GLD_B1_N32_C_0016;
	name zip_GLD_B1_N32_C_0016;
	power_fraction 0.5;
	impedance_fraction 0.5;
	current_fraction 0.0;
	power_pf 0.9;
	current_pf 0.9;
	impedance_pf 0.9;
	heat_fraction 0.0;
	base_power player_7.value;
}

object triplex_line {
	name house_line_GLD_B1_N32_C_0016;
	from node_32_C;
	to meter_GLD_B1_N32_C_0016;
	phases CS;
	length 30 ft;
	configuration triplex_line_config;
}

object triplex_meter {
	name meter_GLD_B1_N30_A_0017;
	nominal_voltage 124.00;
	groupid House_meter;
	phases AS;
}

object house {
	name GLD_B1_N30_A_0017;
	number_of_stories 1;
	cooling_setpoint 72;
	heating_setpoint 67.0;
	T_min 64.0;
	T_max 75;
	k 3.1;
	cooling_system_type ELECTRIC;
	heating_system_type GAS;
	thermostat_control NONE;
	floor_area 1212;
	window_wall_ratio 0.15;
	airchange_per_hour 0.26;
	parent meter_GLD_B1_N30_A_0017;
	air_temperature 69.25855467888384;
	mass_temperature 69.38965467888384;
}

object ZIPload {
	parent GLD_B1_N30_A_0017;
	name zip_GLD_B1_N30_A_0017;
	power_fraction 0.5;
	impedance_fraction 0.5;
	current_fraction 0.0;
	power_pf 0.9;
	current_pf 0.9;
	impedance_pf 0.9;
	heat_fraction 0.0;
	base_power player_1.value;
}

object triplex_line {
	name house_line_GLD_B1_N30_A_0017;
	from node_30_A;
	to meter_GLD_B1_N30_A_0017;
	phases AS;
	length 30 ft;
	configuration triplex_line_config;
}

object triplex_meter {
	name meter_GLD_B1_N100_C_0018;
	nominal_voltage 124.00;
	groupid House_meter;
	phases CS;
}

object house {
	name GLD_B1_N100_C_0018;
	number_of_stories 2;
	cooling_setpoint 70;
	heating_setpoint 64;
	T_min 61;
	T_max 73;
	k 2.1;
	cooling_system_type ELECTRIC;
	heating_system_type RESISTANCE;
	thermostat_control NONE;
	floor_area 3008;
	window_wall_ratio 0.16;
	airchange_per_hour 0.23;
	parent meter_GLD_B1_N100_C_0018;
	air_temperature 68.67162663038576;
	mass_temperature 68.75332663038577;
}

object ZIPload {
	parent GLD_B1_N100_C_0018;
	name zip_GLD_B1_N100_C_0018;
	power_fraction 0.5;
	impedance_fraction 0.5;
	current_fraction 0.0;
	power_pf 0.9;
	current_pf 0.9;
	impedance_pf 0.9;
	heat_fraction 0.0;
	base_power player_0.value;
}

object triplex_line {
	name house_line_GLD_B1_N100_C_0018;
	from node_100_C;
	to meter_GLD_B1_N100_C_0018;
	phases CS;
	length 30 ft;
	configuration triplex_line_config;
}

object triplex_meter {
	name meter_GLD_B1_N17_C_0019;
	nominal_voltage 124.00;
	groupid House_meter;
	phases CS;
}

object house {
	name GLD_B1_N17_C_0019;
	number_of_stories 2;
	cooling_setpoint 71;
	heating_setpoint 65;
	T_min 62;
	T_max 74;
	k 3.6;
	cooling_system_type ELECTRIC;
	heating_system_type GAS;
	thermostat_control NONE;
	floor_area 1977;
	window_wall_ratio 0.16;
	airchange_per_hour 0.41;
	parent meter_GLD_B1_N17_C_0019;
	air_temperature 69.05973302230296;
	mass_temperature 69.16333302230296;
}

object ZIPload {
	parent GLD_B1_N17_C_0019;
	name zip_GLD_B1_N17_C_0019;
	power_fraction 0.5;
	impedance_fraction 0.5;
	current_fraction 0.0;
	power_pf 0.9;
	current_pf 0.9;
	impedance_pf 0.9;
	heat_fraction 0.0;
	base_power player_10.value;
}

object triplex_line {
	name house_line_GLD_B1_N17_C_0019;
	from node_17_C;
	to meter_GLD_B1_N17_C_0019;
	phases CS;
	length 30 ft;
	configuration triplex_line_config;
}

object triplex_meter {
	name meter_GLD_B1_N42_A_0020;
	nominal_voltage 124.00;
	groupid House_meter;
	phases AS;
}

object house {
	name GLD_B1_N42_A_0020;
	number_of_stories 1;
	cooling_setpoint 70;
	heating_setpoint 59;
	T_min 56;
	T_max 73;
	k 2.9;
	cooling_system_type HEAT_PUMP;
	heating_system_type HEAT_PUMP;
	thermostat_control NONE;
	floor_area 2277;
	window_wall_ratio 0.16;
	airchange_per_hour 0.19;
	parent meter_GLD_B1_N42_A_0020;
	air_temperature 69.49870690843332;
	mass_temperature 69.59810690843332;
}

object ZIPload {
	parent GLD_B1_N42_A_0020;
	name zip_GLD_B1_N42_A_0020;
	power_fraction 0.5;
	impedance_fraction 0.5;
	current_fraction 0.0;
	power_pf 0.9;
	current_pf 0.9;
	impedance_pf 0.9;
	heat_fraction 0.0;
	base_power player_12.value;
}

object triplex_line {
	name house_line_GLD_B1_N42_A_0020;
	from node_42_A;
	to meter_GLD_B1_N42_A_0020;
	phases AS;
	length 30 ft;
	configuration triplex_line_config;
}

object triplex_meter {
	name meter_GLD_B1_N43_B_0021;
	nominal_voltage 124.00;
	groupid House_meter;
	phases BS;
}

object house {
	name GLD_B1_N43_B_0021;
	number_of_stories 1;
	cooling_setpoint 70;
	heating_setpoint 62;
	T_min 59;
	T_max 73;
	k 4.0;
	cooling_system_type ELECTRIC;
	heating_system_type GAS;
	thermostat_control NONE;
	floor_area 2373;
	window_wall_ratio 0.15;
	airchange_per_hour 0.37;
	parent meter_GLD_B1_N43_B_0021;
	air_temperature 68.62673051578754;
	mass_temperature 68.71873051578754;
}

object ZIPload {
	parent GLD_B1_N43_B_0021;
	name zip_GLD_B1_N43_B_0021;
	power_fraction 0.5;
	impedance_fraction 0.5;
	current_fraction 0.0;
	power_pf 0.9;
	current_pf 0.9;
	impedance_pf 0.9;
	heat_fraction 0.0;
	base_power player_3.value;
}

object triplex_line {
	name house_line_GLD_B1_N43_B_0021;
	from node_43_B;
	to meter_GLD_B1_N43_B_0021;
	phases BS;
	length 30 ft;
	configuration triplex_line_config;
}

object triplex_meter {
	name meter_GLD_B1_N22_B_0022;
	nominal_voltage 124.00;
	groupid House_meter;
	phases BS;
}

object house {
	name GLD_B1_N22_B_0022;
	number_of_stories 1;
	cooling_setpoint 71;
	heating_setpoint 62;
	T_min 59;
	T_max 74;
	k 2.3;
	cooling_system_type ELECTRIC;
	heating_system_type GAS;
	thermostat_control NONE;
	floor_area 2594;
	window_wall_ratio 0.17;
	airchange_per_hour 0.42;
	parent meter_GLD_B1_N22_B_0022;
	air_temperature 70.01821975074327;
	mass_temperature 70.15151975074328;
}

object ZIPload {
	parent GLD_B1_N22_B_0022;
	name zip_GLD_B1_N22_B_0022;
	power_fraction 0.5;
	impedance_fraction 0.5;
	current_fraction 0.0;
	power_pf 0.9;
	current_pf 0.9;
	impedance_pf 0.9;
	heat_fraction 0.0;
	base_power player_6.value;
}

object triplex_line {
	name house_line_GLD_B1_N22_B_0022;
	from node_22_B;
	to meter_GLD_B1_N22_B_0022;
	phases BS;
	length 30 ft;
	configuration triplex_line_config;
}

object triplex_meter {
	name meter_GLD_B1_N62_C_0023;
	nominal_voltage 124.00;
	groupid House_meter;
	phases CS;
}

object house {
	name GLD_B1_N62_C_0023;
	number_of_stories 1;
	cooling_setpoint 71;
	heating_setpoint 65;
	T_min 62;
	T_max 74;
	k 4.0;
	cooling_system_type ELECTRIC;
	heating_system_type RESISTANCE;
	thermostat_control NONE;
	floor_area 3344;
	window_wall_ratio 0.15;
	airchange_per_hour 0.21;
	parent meter_GLD_B1_N62_C_0023;
	air_temperature 69.01066810347514;
	mass_temperature 69.13736810347514;
}

object ZIPload {
	parent GLD_B1_N62_C_0023;
	name zip_GLD_B1_N62_C_0023;
	power_fraction 0.5;
	impedance_fraction 0.5;
	current_fraction 0.0;
	power_pf 0.9;
	current_pf 0.9;
	impedance_pf 0.9;
	heat_fraction 0.0;
	base_power player_11.value;
}

object triplex_line {
	name house_line_GLD_B1_N62_C_0023;
	from node_62_C;
	to meter_GLD_B1_N62_C_0023;
	phases CS;
	length 30 ft;
	configuration triplex_line_config;
}

object triplex_meter {
	name meter_GLD_B1_N79_A_0024;
	nominal_voltage 124.00;
	groupid House_meter;
	phases AS;
}

object house {
	name GLD_B1_N79_A_0024;
	number_of_stories 2;
	cooling_setpoint 70;
	heating_setpoint 65.0;
	T_min 62.0;
	T_max 73;
	k 3.0;
	cooling_system_type ELECTRIC;
	heating_system_type RESISTANCE;
	thermostat_control NONE;
	floor_area 2037;
	window_wall_ratio 0.15;
	airchange_per_hour 0.93;
	parent meter_GLD_B1_N79_A_0024;
	air_temperature 68.35444381128247;
	mass_temperature 68.45364381128248;
}

object ZIPload {
	parent GLD_B1_N79_A_0024;
	name zip_GLD_B1_N79_A_0024;
	power_fraction 0.5;
	impedance_fraction 0.5;
	current_fraction 0.0;
	power_pf 0.9;
	current_pf 0.9;
	impedance_pf 0.9;
	heat_fraction 0.0;
	base_power player_1.value;
}

object triplex_line {
	name house_line_GLD_B1_N79_A_0024;
	from node_79_A;
	to meter_GLD_B1_N79_A_0024;
	phases AS;
	length 30 ft;
	configuration triplex_line_config;
}

object triplex_meter {
	name meter_GLD_B1_N104_C_0025;
	nominal_voltage 124.00;
	groupid House_meter;
	phases CS;
}

object house {
	name GLD_B1_N104_C_0025;
	number_of_stories 1;
	cooling_setpoint 70;
	heating_setpoint 65.0;
	T_min 62.0;
	T_max 73;
	k 2.0;
	cooling_system_type ELECTRIC;
	heating_system_type GAS;
	thermostat_control NONE;
	floor_area 1512;
	window_wall_ratio 0.15;
	airchange_per_hour 0.33;
	parent meter_GLD_B1_N104_C_0025;
	air_temperature 69.66845357159757;
	mass_temperature 69.76265357159757;
}

object ZIPload {
	parent GLD_B1_N104_C_0025;
	name zip_GLD_B1_N104_C_0025;
	power_fraction 0.5;
	impedance_fraction 0.5;
	current_fraction 0.0;
	power_pf 0.9;
	current_pf 0.9;
	impedance_pf 0.9;
	heat_fraction 0.0;
	base_power player_4.value;
}

object triplex_line {
	name house_line_GLD_B1_N104_C_0025;
	from node_104_C;
	to meter_GLD_B1_N104_C_0025;
	phases CS;
	length 30 ft;
	configuration triplex_line_config;
}

object triplex_meter {
	name meter_GLD_B1_N104_C_0026;
	nominal_voltage 124.00;
	groupid House_meter;
	phases CS;
}

object house {
	name GLD_B1_N104_C_0026;
	number_of_stories 2;
	cooling_setpoint 71;
	heating_setpoint 66;
	T_min 63;
	T_max 74;
	k 3.9;
	cooling_system_type ELECTRIC;
	heating_system_type GAS;
	thermostat_control NONE;
	floor_area 3600;
	window_wall_ratio 0.13;
	airchange_per_hour 0.17;
	parent meter_GLD_B1_N104_C_0026;
	air_temperature 69.84369940707698;
	mass_temperature 69.93139940707698;
}

object ZIPload {
	parent GLD_B1_N104_C_0026;
	name zip_GLD_B1_N104_C_0026;
	power_fraction 0.5;
	impedance_fraction 0.5;
	current_fraction 0.0;
	power_pf 0.9;
	current_pf 0.9;
	impedance_pf 0.9;
	heat_fraction 0.0;
	base_power player_6.value;
}

object triplex_line {
	name house_line_GLD_B1_N104_C_0026;
	from node_104_C;
	to meter_GLD_B1_N104_C_0026;
	phases CS;
	length 30 ft;
	configuration triplex_line_config;
}

object triplex_meter {
	name meter_GLD_B1_N114_A_0027;
	nominal_voltage 124.00;
	groupid House_meter;
	phases AS;
}

object house {
	name GLD_B1_N114_A_0027;
	number_of_stories 1;
	cooling_setpoint 70;
	heating_setpoint 63;
	T_min 60;
	T_max 73;
	k 2.6;
	cooling_system_type ELECTRIC;
	heating_system_type GAS;
	thermostat_control NONE;
	floor_area 1061;
	window_wall_ratio 0.16;
	airchange_per_hour 0.6;
	parent meter_GLD_B1_N114_A_0027;
	air_temperature 70.38628022019039;
	mass_temperature 70.47748022019039;
}

object ZIPload {
	parent GLD_B1_N114_A_0027;
	name zip_GLD_B1_N114_A_0027;
	power_fraction 0.5;
	impedance_fraction 0.5;
	current_fraction 0.0;
	power_pf 0.9;
	current_pf 0.9;
	impedance_pf 0.9;
	heat_fraction 0.0;
	base_power player_13.value;
}

object triplex_line {
	name house_line_GLD_B1_N114_A_0027;
	from node_114_A;
	to meter_GLD_B1_N114_A_0027;
	phases AS;
	length 30 ft;
	configuration triplex_line_config;
}

object triplex_meter {
	name meter_GLD_B1_N103_C_0028;
	nominal_voltage 124.00;
	groupid House_meter;
	phases CS;
}

object house {
	name GLD_B1_N103_C_0028;
	number_of_stories 1;
	cooling_setpoint 70;
	heating_setpoint 65;
	T_min 62;
	T_max 73;
	k 4.0;
	cooling_system_type ELECTRIC;
	heating_system_type GAS;
	thermostat_control NONE;
	floor_area 2723;
	window_wall_ratio 0.15;
	airchange_per_hour 0.44;
	parent meter_GLD_B1_N103_C_0028;
	air_temperature 68.31110553615983;
	mass_temperature 68.42130553615984;
}

object ZIPload {
	parent GLD_B1_N103_C_0028;
	name zip_GLD_B1_N103_C_0028;
	power_fraction 0.5;
	impedance_fraction 0.5;
	current_fraction 0.0;
	power_pf 0.9;
	current_pf 0.9;
	impedance_pf 0.9;
	heat_fraction 0.0;
	base_power player_2.value;
}

object triplex_line {
	name house_line_GLD_B1_N103_C_0028;
	from node_103_C;
	to meter_GLD_B1_N103_C_0028;
	phases CS;
	length 30 ft;
	configuration triplex_line_config;
}

object triplex_meter {
	name meter_GLD_B1_N20_A_0029;
	nominal_voltage 124.00;
	groupid House_meter;
	phases AS;
}

object house {
	name GLD_B1_N20_A_0029;
	number_of_stories 2;
	cooling_setpoint 69;
	heating_setpoint 64;
	T_min 61;
	T_max 72;
	k 4.0;
	cooling_system_type ELECTRIC;
	heating_system_type RESISTANCE;
	thermostat_control NONE;
	floor_area 3084;
	window_wall_ratio 0.14;
	airchange_per_hour 0.47;
	parent meter_GLD_B1_N20_A_0029;
	air_temperature 67.78682940209654;
	mass_temperature 67.84382940209653;
}

object ZIPload {
	parent GLD_B1_N20_A_0029;
	name zip_GLD_B1_N20_A_0029;
	power_fraction 0.5;
	impedance_fraction 0.5;
	current_fraction 0.0;
	power_pf 0.9;
	current_pf 0.9;
	impedance_pf 0.9;
	heat_fraction 0.0;
	base_power player_4.value;
}

object triplex_line {
	name house_line_GLD_B1_N20_A_0029;
	from node_20_A;
	to meter_GLD_B1_N20_A_0029;
	phases AS;
	length 30 ft;
	configuration triplex_line_config;
}

object triplex_meter {
	name meter_GLD_B1_N12_B_0030;
	nominal_voltage 124.00;
	groupid House_meter;
	phases BS;
}

object house {
	name GLD_B1_N12_B_0030;
	number_of_stories 2;
	cooling_setpoint 69;
	heating_setpoint 64.0;
	T_min 61.0;
	T_max 72;
	k 2.0;
	cooling_system_type ELECTRIC;
	heating_system_type GAS;
	thermostat_control NONE;
	floor_area 3400;
	window_wall_ratio 0.14;
	airchange_per_hour 0.12;
	parent meter_GLD_B1_N12_B_0030;
	air_temperature 68.07638680045041;
	mass_temperature 68.1198868004504;
}

object ZIPload {
	parent GLD_B1_N12_B_0030;
	name zip_GLD_B1_N12_B_0030;
	power_fraction 0.5;
	impedance_fraction 0.5;
	current_fraction 0.0;
	power_pf 0.9;
	current_pf 0.9;
	impedance_pf 0.9;
	heat_fraction 0.0;
	base_power player_10.value;
}

object triplex_line {
	name house_line_GLD_B1_N12_B_0030;
	from node_12_B;
	to meter_GLD_B1_N12_B_0030;
	phases BS;
	length 30 ft;
	configuration triplex_line_config;
}

object triplex_meter {
	name meter_GLD_B1_N10_A_0031;
	nominal_voltage 124.00;
	groupid House_meter;
	phases AS;
}

object house {
	name GLD_B1_N10_A_0031;
	number_of_stories 1;
	cooling_setpoint 69;
	heating_setpoint 64;
	T_min 61;
	T_max 72;
	k 2.0;
	cooling_system_type ELECTRIC;
	heating_system_type GAS;
	thermostat_control NONE;
	floor_area 2358;
	window_wall_ratio 0.16;
	airchange_per_hour 0.09;
	parent meter_GLD_B1_N10_A_0031;
	air_temperature 68.3574340401872;
	mass_temperature 68.4150340401872;
}

object ZIPload {
	parent GLD_B1_N10_A_0031;
	name zip_GLD_B1_N10_A_0031;
	power_fraction 0.5;
	impedance_fraction 0.5;
	current_fraction 0.0;
	power_pf 0.9;
	current_pf 0.9;
	impedance_pf 0.9;
	heat_fraction 0.0;
	base_power player_0.value;
}

object triplex_line {
	name house_line_GLD_B1_N10_A_0031;
	from node_10_A;
	to meter_GLD_B1_N10_A_0031;
	phases AS;
	length 30 ft;
	configuration triplex_line_config;
}

object triplex_meter {
	name meter_GLD_B1_N75_C_0032;
	nominal_voltage 124.00;
	groupid House_meter;
	phases CS;
}

object house {
	name GLD_B1_N75_C_0032;
	number_of_stories 2;
	cooling_setpoint 72;
	heating_setpoint 66;
	T_min 63;
	T_max 75;
	k 4.0;
	cooling_system_type ELECTRIC;
	heating_system_type GAS;
	thermostat_control NONE;
	floor_area 3683;
	window_wall_ratio 0.15;
	airchange_per_hour 0.2;
	parent meter_GLD_B1_N75_C_0032;
	air_temperature 71.57279749724279;
	mass_temperature 71.69419749724278;
}

object ZIPload {
	parent GLD_B1_N75_C_0032;
	name zip_GLD_B1_N75_C_0032;
	power_fraction 0.5;
	impedance_fraction 0.5;
	current_fraction 0.0;
	power_pf 0.9;
	current_pf 0.9;
	impedance_pf 0.9;
	heat_fraction 0.0;
	base_power player_11.value;
}

object triplex_line {
	name house_line_GLD_B1_N75_C_0032;
	from node_75_C;
	to meter_GLD_B1_N75_C_0032;
	phases CS;
	length 30 ft;
	configuration triplex_line_config;
}

object triplex_meter {
	name meter_GLD_B1_N73_C_0033;
	nominal_voltage 124.00;
	groupid House_meter;
	phases CS;
}

object house {
	name GLD_B1_N73_C_0033;
	number_of_stories 2;
	cooling_setpoint 72;
	heating_setpoint 67.0;
	T_min 64.0;
	T_max 75;
	k 3.7;
	cooling_system_type ELECTRIC;
	heating_system_type GAS;
...